*EXP.DETAILS: TERRAR01SG                                                             

*FILES
@N  EXP.DATA    AFILE        ADIR
  1 EXP         TERRAR01.SGA                                                                                 
@N  SPECIES     SPFILE       SPDIR
  1 SPE         SGCER048.SPE ///Users/kristinariemer/tmp/Genotype/                                           
@N  ECOTYPE     EFILE        EDIR
  1 ECO         SGCER048.ECO ///Users/kristinariemer/tmp/Genotype/                                           
@N  CULTIVAR    CFILE        CDIR
  1 CUL         SGCER048.CUL ///Users/kristinariemer/tmp/Genotype/                                           
@N  SOIL        SFILE        SDIR
  1 SOIL        AZ.SOL       ///Users/kristinariemer/tmp/Soil/                                               
@N  WEATHER     WFILE        WDIR
  1 WEATH       AZMC8832.WTH ///Users/kristinariemer/tmp/Weather/                                            

*SIMULATION CONTROL
@N  GENERAL     NYERS NREPS START   SDATE RSEED SNAME.................... MODEL...
  1 GE              1     1     S 2018080  2150 DEFAULT SIMULATION CONTRL SGCER048
@N  OPTIONS     WATER NITRO SYMBI PHOSP POTAS DISES  CHEM  TILL   CO2
  1 OP              Y     Y     N     N     N     N     N     Y     M
@N  METHODS     WTHER INCON LIGHT EVAPO INFIL PHOTO HYDRO NSWIT SOMDY MESEV MESOL METMP MEGHG
  1 ME              M     M     E     R     S     C     R     1     P     S     2     D     0
@N  MANAGEMENT  PLANT IRRIG FERTI RESID HARVS
  1 MA              R     R     R     R     M
@N  OUTPUTS     FNAME OVVEW SUMRY FROPT GROUT CAOUT WAOUT NIOUT MIOUT DIOUT  LONG CHOUT OPOUT
  1 OU              N     Y     Y     1     Y     Y     N     N     N     N     N     N     N

!AUTOMATIC MANAGEM
@N  PLANTING      PFRST   PLAST PH2OL PH2OU PH2OD PSTMX PSTMN
  1 PL              -99     -99   40.  100.   30.   40.   10.
@N  IRRIGATION  IMDEP ITHRL ITHRU IROFF IMETH IRAMT IREFF
  1 IR            30.   50.  100. GS000 IR001  10.0 1.000
@N  NITROGEN    NMDEP NMTHR NAMNT NCODE NAOFF
  1 NI            30.   50.   25. FE001 GS000
@N  RESIDUES    RIPCN RTIME RIDEP
  1 RE           100.     1   20.
@N  HARVEST     HFRST   HLAST HPCNP HRCNR
  1 HA              0     -99  100.    0.

*TREATMENTS
@N   R O C TNAME....................  CU  FL  SA  IC  MP  MI  MF  MR  MC  MT  ME  MH  SM
400  1 1 0 TERRAREF-----S4_4000        7   1   0   0   1   0   1   0   0   0   0   0   1

*CULTIVARS
@C  CR INGENO CNAME
  7 SG 990001 N.AMERICAN      

*FIELDS
@L  ID_FIELD WSTA....  FLSA  FLOB  FLDT  FLDD  FLDS  FLST SLTX   SLDP ID_SOIL     PMWD PMALB
  1 -99      AZMC8832   0.0  -99. -99    -99.  100. -99   CL     -99. AZMC920001 -99.0-99.00
@L             XCRD            YCRD      ELEV              AREA  SLEN  FLWR  SLAS PRMGT
  1      -111.97495        33.07549    -99.00               1.0  100.   1.0 -99.0   -99   -99

*INITIAL CONDITIONS
@C  PCR     ICDAT  ICRT  ICND  ICRN  ICRE  ICWD ICRES ICREN ICREP ICRIP ICRID
  0             0     0     0  1.00  1.00   0.0     0  0.00  0.00  100.    0.
@C   ICBL  SH2O  SNH4  SNO3
  0    5. 0.320   0.0   0.0
  0   15. 0.319   0.0   0.0
  0   30. 0.319   0.0   0.0
  0   40. 0.318   0.0   0.0
  0   50. 0.318   0.0   0.0
  0   60. 0.318   0.0   0.0
  0   70. 0.318   0.0   0.0
  0   90. 0.299   0.0   0.0
  0  110. 0.275   0.0   0.0
  0  120. 0.275   0.0   0.0
  0  130. 0.275   0.0   0.0
  0  150. 0.254   0.0   0.0
  0  170. 0.254   0.0   0.0
  0  190. 0.244   0.0   0.0
  0  210. 0.244   0.0   0.0

*PLANTING DETAILS
@P    PDATE   EDATE  PPOP  PPOE  PLME  PLDS  PLRS  PLRD  PLDP  PLWT  PAGE  PENV  PLPH  SPRL
  1 2018115     -99  10.0  10.0     S     9   72.  -99.   3.2  -99.  -99. -99.0 -99.0 -99.0

*IRRIGATION
@I   IEFF  IDEP  ITHR  IEPT  IOFF  IAME  IAMT
  0 1.000    0.    0.    0. GS000 IR001   0.0
@I    IDATE  IROP IRVAL

*FERTILIZERS
@F    FDATE  FMCD  FACD  FDEP  FAMN  FAMP  FAMK  FAMC  FAMO  FOCD
  1 2018124 FE005 AP002   10.    0.  -99.  -99.  -99.  -99.   -99
  1 2018155 FE005 AP002   10.    0.  -99.  -99.  -99.  -99.   -99

*RESIDUES
@R    RDATE  RCOD  RAMT  RESN  RESP  RESK  RINP  RDEP  RMET

*CHEMICALS
@C    CDATE CHCOD CHAMT  CHME CHDEP   CHT

*TILLAGE
@T    TDATE TIMPL  TDEP

*ENVIRONMENT
@E    ODATE  EDAY  ERAD  EMAX  EMIN ERAIN  ECO2  EDEW EWIND

*HARVEST
@H    HDATE  HSTG  HCOM HSIZE   HPC  HBPC
