*MODEL INPUT FILE            B   400     1   400   999     0
*FILES              
MODEL          SGCER048
FILEX          TERRAR01.SGX                                                                                 
FILEA          TERRAR01.SGA                                                                                 
FILET          TERRAR01.SGT                                                                                 
SPECIES        SGCER048.SPE ///Users/kristinariemer/tmp/Genotype/                                           
ECOTYPE        SGCER048.ECO ///Users/kristinariemer/tmp/Genotype/                                           
CULTIVAR       SGCER048.CUL ///Users/kristinariemer/tmp/Genotype/                                           
PESTS          SGCER048.PST ///Users/kristinariemer/tmp/Pest/                                               
SOILS          AZ.SOL       ///Users/kristinariemer/tmp/Soil/                                               
WEATHERW       AZMC8832.WTH ///Users/kristinariemer/tmp/Weather/                                            
OUTPUT         OVERVIEW
*SIMULATION CONTROL 
                   1     1     S 2018080  2150 DEFAULT SIMULATION CONTRL
                   Y     Y     N     N     N     N     N     Y     M
                   M     M     E     R     S     C     R     1     P     S     2     D     0
                   R     R     R     R     M
                   N     Y     Y     1     Y     Y     N     N     N     N     N     N     N
!AUTOMATIC MANAGEM  
                   -99     -99   40.  100.   30.   40.   10.
                 30.   50.  100. GS000 IR001  10.0 1.000
                 30.   50.   25. FE001 GS000
                100.     1   20.
                     0     -99  100.    0.
*EXP.DETAILS        
  1TERRAR01 SG                                                             
*TREATMENTS         
400 1 1 0 TERRAREF-----S4_4000     
*CULTIVARS          
   SG 990001 N.AMERICAN      
*FIELDS             
   -99      AZMC8832   0.0  -99. -99    -99. 100.0 -99   CL     -99. AZMC920001 -99.0-99.00
   -111.9749450684   33.0754890442   -99.000               1.0  100.   1.0 -99.0   -99   -99
*INITIAL CONDITIONS 
               0     0     0  1.00  1.00   0.0     0  0.00  0.00  100.    0.
      5. 0.320   0.0   0.0
     15. 0.319   0.0   0.0
     30. 0.319   0.0   0.0
     40. 0.318   0.0   0.0
     50. 0.318   0.0   0.0
     60. 0.318   0.0   0.0
     70. 0.318   0.0   0.0
     90. 0.299   0.0   0.0
    110. 0.275   0.0   0.0
    120. 0.275   0.0   0.0
    130. 0.275   0.0   0.0
    150. 0.254   0.0   0.0
    170. 0.254   0.0   0.0
    190. 0.244   0.0   0.0
    210. 0.244   0.0   0.0
*PLANTING DETAILS   
   2018115     -99  10.0  10.0     S     9   72.  -99.   3.2  -99.  -99. -99.0 -99.0 -99.0
*IRRIGATION         
   1.000    0.    0.    0. GS000 IR001   0.0
*FERTILIZERS        
   2018124 FE005 AP002   10.    0.  -99.  -99.  -99.  -99.   -99
   2018155 FE005 AP002   10.    0.  -99.  -99.  -99.  -99.   -99
*RESIDUES           
*CHEMICALS          
*TILLAGE            
*ENVIRONMENT        
*HARVEST            
*SOIL               
 AZMC920001  KIMBALL     CL     -99. TRIX CLAY LOAM                                    
 MARICOPA    USA          33.050 112.000 FINE-LOAMY, MIXED (CALCAREOUS), HYPERTHERMIC TYPIC
 -99    0.20  12.0  0.29   70.  1.00  0.90 -99   -99   -99   -99  
    5.       0.202 0.320 0.417 1.000  4.30  1.31 0.410  34.0  31.0   0.0  -9.0  8.50-99.00 25.50-99.00
   15.       0.201 0.319 0.424 0.741  4.30  1.27 0.350  34.0  31.0   0.0  -9.0  8.50-99.00 25.50-99.00
   30.       0.199 0.319 0.424 0.607  4.30  1.27 0.270  34.0  31.0   0.0  -9.0  8.50-99.00 25.50-99.00
   40.       0.198 0.318 0.419 0.449  4.30  1.30 0.240  34.0  31.0   0.0  -9.0  8.60-99.00 24.50-99.00
   50.       0.198 0.318 0.419 0.449  4.30  1.30 0.240  34.0  31.0   0.0  -9.0  8.60-99.00 24.50-99.00
   60.       0.198 0.318 0.387 0.301  4.30  1.47 0.160  34.0  31.0   0.0  -9.0  8.60-99.00 23.50-99.00
   70.       0.198 0.318 0.387 0.301  4.30  1.47 0.160  34.0  31.0   0.0  -9.0  8.60-99.00 23.50-99.00
   90.       0.186 0.299 0.359 0.183  4.30  1.57 0.300  30.0  25.0   0.0  -9.0  8.60-99.00 20.70-99.00
  110.       0.159 0.275 0.347 0.100  4.30  1.57 0.100  25.0  20.0   0.0  -9.0  8.60-99.00 17.30-99.00
  120.       0.159 0.275 0.347 0.100  4.30  1.57 0.100  25.0  20.0   0.0  -9.0  8.60-99.00 17.30-99.00
  130.       0.159 0.275 0.347 0.100  4.30  1.57 0.100  25.0  20.0   0.0  -9.0  8.60-99.00 17.30-99.00
  150.       0.136 0.254 0.336 0.055  4.30  1.57 -99.0  20.0  20.0   0.0  -9.0  8.60-99.00 13.80-99.00
  170.       0.136 0.254 0.336 0.000  4.30  1.57 -99.0  20.0  20.0   0.0  -9.0  8.60-99.00 13.80-99.00
  190.       0.128 0.244 0.331 0.000  4.30  1.57 -99.0  18.0  17.0   0.0  -9.0  8.60-99.00 12.40-99.00
  210.       0.128 0.244 0.331 0.000  4.30  1.57 -99.0  18.0  17.0   0.0  -9.0  8.60-99.00 12.40-99.00
                    
    5.-99.00 -99.0 -99.0 -99.0 -99.0 -99.0 -99.0 -99.0 -99.0 -99.0-99.00 -99.0 -99.0 -99.0 -99.0 -99.0  -99.
   15.-99.00 -99.0 -99.0 -99.0 -99.0 -99.0 -99.0 -99.0 -99.0 -99.0-99.00 -99.0 -99.0 -99.0 -99.0 -99.0  -99.
   30.-99.00 -99.0 -99.0 -99.0 -99.0 -99.0 -99.0 -99.0 -99.0 -99.0-99.00 -99.0 -99.0 -99.0 -99.0 -99.0  -99.
   40.-99.00 -99.0 -99.0 -99.0 -99.0 -99.0 -99.0 -99.0 -99.0 -99.0-99.00 -99.0 -99.0 -99.0 -99.0 -99.0  -99.
   50.-99.00 -99.0 -99.0 -99.0 -99.0 -99.0 -99.0 -99.0 -99.0 -99.0-99.00 -99.0 -99.0 -99.0 -99.0 -99.0  -99.
   60.-99.00 -99.0 -99.0 -99.0 -99.0 -99.0 -99.0 -99.0 -99.0 -99.0-99.00 -99.0 -99.0 -99.0 -99.0 -99.0  -99.
   70.-99.00 -99.0 -99.0 -99.0 -99.0 -99.0 -99.0 -99.0 -99.0 -99.0-99.00 -99.0 -99.0 -99.0 -99.0 -99.0  -99.
   90.-99.00 -99.0 -99.0 -99.0 -99.0 -99.0 -99.0 -99.0 -99.0 -99.0-99.00 -99.0 -99.0 -99.0 -99.0 -99.0  -99.
  110.-99.00 -99.0 -99.0 -99.0 -99.0 -99.0 -99.0 -99.0 -99.0 -99.0-99.00 -99.0 -99.0 -99.0 -99.0 -99.0  -99.
  120.-99.00 -99.0 -99.0 -99.0 -99.0 -99.0 -99.0 -99.0 -99.0 -99.0-99.00 -99.0 -99.0 -99.0 -99.0 -99.0  -99.
  130.-99.00 -99.0 -99.0 -99.0 -99.0 -99.0 -99.0 -99.0 -99.0 -99.0-99.00 -99.0 -99.0 -99.0 -99.0 -99.0  -99.
  150.-99.00 -99.0 -99.0 -99.0 -99.0 -99.0 -99.0 -99.0 -99.0 -99.0-99.00 -99.0 -99.0 -99.0 -99.0 -99.0  -99.
  170.-99.00 -99.0 -99.0 -99.0 -99.0 -99.0 -99.0 -99.0 -99.0 -99.0-99.00 -99.0 -99.0 -99.0 -99.0 -99.0  -99.
  190.-99.00 -99.0 -99.0 -99.0 -99.0 -99.0 -99.0 -99.0 -99.0 -99.0-99.00 -99.0 -99.0 -99.0 -99.0 -99.0  -99.
  210.-99.00 -99.0 -99.0 -99.0 -99.0 -99.0 -99.0 -99.0 -99.0 -99.0-99.00 -99.0 -99.0 -99.0 -99.0 -99.0  -99.
                    
    5.-99.00-99.00-99.00-99.00
   15.-99.00-99.00-99.00-99.00
   30.-99.00-99.00-99.00-99.00
   40.-99.00-99.00-99.00-99.00
   50.-99.00-99.00-99.00-99.00
   60.-99.00-99.00-99.00-99.00
   70.-99.00-99.00-99.00-99.00
   90.-99.00-99.00-99.00-99.00
  110.-99.00-99.00-99.00-99.00
  120.-99.00-99.00-99.00-99.00
  130.-99.00-99.00-99.00-99.00
  150.-99.00-99.00-99.00-99.00
  170.-99.00-99.00-99.00-99.00
  190.-99.00-99.00-99.00-99.00
  210.-99.00-99.00-99.00-99.00
*CULTIVAR           
990001 N.AMERICAN       IB0001  360.0102.00  12.5  30.0 617.5 152.5 81.50 540.0  49.0   0.0   6.0
