*EXP.DETAILS: TERRAR01SG 

! APPLIED DOME INFO
! TERRAREF-----S4_808 Field    	TERRAREF------S4
! TERRAREF-----S4_816 Field    	TERRAREF------S4
! TERRAREF-----S4_824 Field    	TERRAREF------S4
! TERRAREF-----S4_832 Field    	TERRAREF------S4
! TERRAREF-----S4_840 Field    	TERRAREF------S4
! TERRAREF-----S4_848 Field    	TERRAREF------S4
! TERRAREF-----S4_856 Field    	TERRAREF------S4
! TERRAREF-----S4_864 Field    	TERRAREF------S4
! TERRAREF-----S4_872 Field    	TERRAREF------S4
! TERRAREF-----S4_880 Field    	TERRAREF------S4
! TERRAREF-----S4_888 Field    	TERRAREF------S4
! TERRAREF-----S4_896 Field    	TERRAREF------S4
! TERRAREF-----S4_904 Field    	TERRAREF------S4
! TERRAREF-----S4_912 Field    	TERRAREF------S4
! TERRAREF-----S4_920 Field    	TERRAREF------S4
! TERRAREF-----S4_928 Field    	TERRAREF------S4
! TERRAREF-----S4_936 Field    	TERRAREF------S4
! TERRAREF-----S4_944 Field    	TERRAREF------S4
! TERRAREF-----S4_952 Field    	TERRAREF------S4
! TERRAREF-----S4_960 Field    	TERRAREF------S4
! TERRAREF-----S4_968 Field    	TERRAREF------S4
! TERRAREF-----S4_976 Field    	TERRAREF------S4
! TERRAREF-----S4_984 Field    	TERRAREF------S4
! TERRAREF-----S4_992 Field    	TERRAREF------S4
! TERRAREF-----S4_1000 Field    	TERRAREF------S4
! TERRAREF-----S4_1008 Field    	TERRAREF------S4
! TERRAREF-----S4_1016 Field    	TERRAREF------S4
! TERRAREF-----S4_1024 Field    	TERRAREF------S4
! TERRAREF-----S4_1032 Field    	TERRAREF------S4
! TERRAREF-----S4_1040 Field    	TERRAREF------S4
! TERRAREF-----S4_1048 Field    	TERRAREF------S4
! TERRAREF-----S4_1056 Field    	TERRAREF------S4
! TERRAREF-----S4_1064 Field    	TERRAREF------S4
! TERRAREF-----S4_1072 Field    	TERRAREF------S4
! TERRAREF-----S4_1080 Field    	TERRAREF------S4
! TERRAREF-----S4_1088 Field    	TERRAREF------S4
! TERRAREF-----S4_1096 Field    	TERRAREF------S4
! TERRAREF-----S4_1104 Field    	TERRAREF------S4
! TERRAREF-----S4_1112 Field    	TERRAREF------S4
! TERRAREF-----S4_1120 Field    	TERRAREF------S4
! TERRAREF-----S4_1128 Field    	TERRAREF------S4
! TERRAREF-----S4_1136 Field    	TERRAREF------S4
! TERRAREF-----S4_1144 Field    	TERRAREF------S4
! TERRAREF-----S4_1152 Field    	TERRAREF------S4
! TERRAREF-----S4_1160 Field    	TERRAREF------S4
! TERRAREF-----S4_1168 Field    	TERRAREF------S4
! TERRAREF-----S4_1176 Field    	TERRAREF------S4
! TERRAREF-----S4_1184 Field    	TERRAREF------S4
! TERRAREF-----S4_1192 Field    	TERRAREF------S4
! TERRAREF-----S4_1200 Field    	TERRAREF------S4
! TERRAREF-----S4_1208 Field    	TERRAREF------S4
! TERRAREF-----S4_1216 Field    	TERRAREF------S4
! TERRAREF-----S4_1224 Field    	TERRAREF------S4
! TERRAREF-----S4_1232 Field    	TERRAREF------S4
! TERRAREF-----S4_1240 Field    	TERRAREF------S4
! TERRAREF-----S4_1248 Field    	TERRAREF------S4
! TERRAREF-----S4_1256 Field    	TERRAREF------S4
! TERRAREF-----S4_1264 Field    	TERRAREF------S4
! TERRAREF-----S4_1272 Field    	TERRAREF------S4
! TERRAREF-----S4_1280 Field    	TERRAREF------S4
! TERRAREF-----S4_1288 Field    	TERRAREF------S4
! TERRAREF-----S4_1296 Field    	TERRAREF------S4
! TERRAREF-----S4_1304 Field    	TERRAREF------S4
! TERRAREF-----S4_1312 Field    	TERRAREF------S4
! TERRAREF-----S4_1320 Field    	TERRAREF------S4
! TERRAREF-----S4_1328 Field    	TERRAREF------S4
! TERRAREF-----S4_1336 Field    	TERRAREF------S4
! TERRAREF-----S4_1344 Field    	TERRAREF------S4
! TERRAREF-----S4_1352 Field    	TERRAREF------S4
! TERRAREF-----S4_1360 Field    	TERRAREF------S4
! TERRAREF-----S4_1368 Field    	TERRAREF------S4
! TERRAREF-----S4_1376 Field    	TERRAREF------S4
! TERRAREF-----S4_1384 Field    	TERRAREF------S4
! TERRAREF-----S4_1392 Field    	TERRAREF------S4
! TERRAREF-----S4_1400 Field    	TERRAREF------S4
! TERRAREF-----S4_1408 Field    	TERRAREF------S4
! TERRAREF-----S4_1416 Field    	TERRAREF------S4
! TERRAREF-----S4_1424 Field    	TERRAREF------S4
! TERRAREF-----S4_1432 Field    	TERRAREF------S4
! TERRAREF-----S4_1440 Field    	TERRAREF------S4
! TERRAREF-----S4_1448 Field    	TERRAREF------S4
! TERRAREF-----S4_1456 Field    	TERRAREF------S4
! TERRAREF-----S4_1464 Field    	TERRAREF------S4
! TERRAREF-----S4_1472 Field    	TERRAREF------S4
! TERRAREF-----S4_1480 Field    	TERRAREF------S4
! TERRAREF-----S4_1488 Field    	TERRAREF------S4
! TERRAREF-----S4_1496 Field    	TERRAREF------S4
! TERRAREF-----S4_1504 Field    	TERRAREF------S4
! TERRAREF-----S4_1512 Field    	TERRAREF------S4
! TERRAREF-----S4_1520 Field    	TERRAREF------S4
! TERRAREF-----S4_1528 Field    	TERRAREF------S4
! TERRAREF-----S4_1536 Field    	TERRAREF------S4
! TERRAREF-----S4_1544 Field    	TERRAREF------S4
! TERRAREF-----S4_1552 Field    	TERRAREF------S4
! TERRAREF-----S4_1560 Field    	TERRAREF------S4
! TERRAREF-----S4_1568 Field    	TERRAREF------S4
! TERRAREF-----S4_1576 Field    	TERRAREF------S4
! TERRAREF-----S4_1584 Field    	TERRAREF------S4
! TERRAREF-----S4_1592 Field    	TERRAREF------S4
! TERRAREF-----S4_1600 Field    	TERRAREF------S4
! TERRAREF-----S4_1608 Field    	TERRAREF------S4
! TERRAREF-----S4_1616 Field    	TERRAREF------S4
! TERRAREF-----S4_1624 Field    	TERRAREF------S4
! TERRAREF-----S4_1632 Field    	TERRAREF------S4
! TERRAREF-----S4_1640 Field    	TERRAREF------S4
! TERRAREF-----S4_1648 Field    	TERRAREF------S4
! TERRAREF-----S4_1656 Field    	TERRAREF------S4
! TERRAREF-----S4_1664 Field    	TERRAREF------S4
! TERRAREF-----S4_1672 Field    	TERRAREF------S4
! TERRAREF-----S4_1680 Field    	TERRAREF------S4
! TERRAREF-----S4_1688 Field    	TERRAREF------S4
! TERRAREF-----S4_1696 Field    	TERRAREF------S4
! TERRAREF-----S4_1704 Field    	TERRAREF------S4
! TERRAREF-----S4_1712 Field    	TERRAREF------S4
! TERRAREF-----S4_1720 Field    	TERRAREF------S4
! TERRAREF-----S4_1728 Field    	TERRAREF------S4
! TERRAREF-----S4_1736 Field    	TERRAREF------S4
! TERRAREF-----S4_1744 Field    	TERRAREF------S4
! TERRAREF-----S4_1752 Field    	TERRAREF------S4
! TERRAREF-----S4_1760 Field    	TERRAREF------S4
! TERRAREF-----S4_1768 Field    	TERRAREF------S4
! TERRAREF-----S4_1776 Field    	TERRAREF------S4
! TERRAREF-----S4_1784 Field    	TERRAREF------S4
! TERRAREF-----S4_1792 Field    	TERRAREF------S4
! TERRAREF-----S4_1800 Field    	TERRAREF------S4
! TERRAREF-----S4_1808 Field    	TERRAREF------S4
! TERRAREF-----S4_1816 Field    	TERRAREF------S4
! TERRAREF-----S4_1824 Field    	TERRAREF------S4
! TERRAREF-----S4_1832 Field    	TERRAREF------S4
! TERRAREF-----S4_1840 Field    	TERRAREF------S4
! TERRAREF-----S4_1848 Field    	TERRAREF------S4
! TERRAREF-----S4_1856 Field    	TERRAREF------S4
! TERRAREF-----S4_1864 Field    	TERRAREF------S4
! TERRAREF-----S4_1872 Field    	TERRAREF------S4
! TERRAREF-----S4_1880 Field    	TERRAREF------S4
! TERRAREF-----S4_1888 Field    	TERRAREF------S4
! TERRAREF-----S4_1896 Field    	TERRAREF------S4
! TERRAREF-----S4_1904 Field    	TERRAREF------S4
! TERRAREF-----S4_1912 Field    	TERRAREF------S4
! TERRAREF-----S4_1920 Field    	TERRAREF------S4
! TERRAREF-----S4_1928 Field    	TERRAREF------S4
! TERRAREF-----S4_1936 Field    	TERRAREF------S4
! TERRAREF-----S4_1944 Field    	TERRAREF------S4
! TERRAREF-----S4_1952 Field    	TERRAREF------S4
! TERRAREF-----S4_1960 Field    	TERRAREF------S4
! TERRAREF-----S4_1968 Field    	TERRAREF------S4
! TERRAREF-----S4_1976 Field    	TERRAREF------S4
! TERRAREF-----S4_1984 Field    	TERRAREF------S4
! TERRAREF-----S4_1992 Field    	TERRAREF------S4
! TERRAREF-----S4_2000 Field    	TERRAREF------S4
! TERRAREF-----S4_2008 Field    	TERRAREF------S4
! TERRAREF-----S4_2016 Field    	TERRAREF------S4
! TERRAREF-----S4_2024 Field    	TERRAREF------S4
! TERRAREF-----S4_2032 Field    	TERRAREF------S4
! TERRAREF-----S4_2040 Field    	TERRAREF------S4
! TERRAREF-----S4_2048 Field    	TERRAREF------S4
! TERRAREF-----S4_2056 Field    	TERRAREF------S4
! TERRAREF-----S4_2064 Field    	TERRAREF------S4
! TERRAREF-----S4_2072 Field    	TERRAREF------S4
! TERRAREF-----S4_2080 Field    	TERRAREF------S4
! TERRAREF-----S4_2088 Field    	TERRAREF------S4
! TERRAREF-----S4_2096 Field    	TERRAREF------S4
! TERRAREF-----S4_2104 Field    	TERRAREF------S4
! TERRAREF-----S4_2112 Field    	TERRAREF------S4
! TERRAREF-----S4_2120 Field    	TERRAREF------S4
! TERRAREF-----S4_2128 Field    	TERRAREF------S4
! TERRAREF-----S4_2136 Field    	TERRAREF------S4
! TERRAREF-----S4_2144 Field    	TERRAREF------S4
! TERRAREF-----S4_2152 Field    	TERRAREF------S4
! TERRAREF-----S4_2160 Field    	TERRAREF------S4
! TERRAREF-----S4_2168 Field    	TERRAREF------S4
! TERRAREF-----S4_2176 Field    	TERRAREF------S4
! TERRAREF-----S4_2184 Field    	TERRAREF------S4
! TERRAREF-----S4_2192 Field    	TERRAREF------S4
! TERRAREF-----S4_2200 Field    	TERRAREF------S4
! TERRAREF-----S4_2208 Field    	TERRAREF------S4
! TERRAREF-----S4_2216 Field    	TERRAREF------S4
! TERRAREF-----S4_2224 Field    	TERRAREF------S4
! TERRAREF-----S4_2232 Field    	TERRAREF------S4
! TERRAREF-----S4_2240 Field    	TERRAREF------S4
! TERRAREF-----S4_2248 Field    	TERRAREF------S4
! TERRAREF-----S4_2256 Field    	TERRAREF------S4
! TERRAREF-----S4_2264 Field    	TERRAREF------S4
! TERRAREF-----S4_2272 Field    	TERRAREF------S4
! TERRAREF-----S4_2280 Field    	TERRAREF------S4
! TERRAREF-----S4_2288 Field    	TERRAREF------S4
! TERRAREF-----S4_2296 Field    	TERRAREF------S4
! TERRAREF-----S4_2304 Field    	TERRAREF------S4
! TERRAREF-----S4_2312 Field    	TERRAREF------S4
! TERRAREF-----S4_2320 Field    	TERRAREF------S4
! TERRAREF-----S4_2328 Field    	TERRAREF------S4
! TERRAREF-----S4_2336 Field    	TERRAREF------S4
! TERRAREF-----S4_2344 Field    	TERRAREF------S4
! TERRAREF-----S4_2352 Field    	TERRAREF------S4
! TERRAREF-----S4_2360 Field    	TERRAREF------S4
! TERRAREF-----S4_2368 Field    	TERRAREF------S4
! TERRAREF-----S4_2376 Field    	TERRAREF------S4
! TERRAREF-----S4_2384 Field    	TERRAREF------S4
! TERRAREF-----S4_2392 Field    	TERRAREF------S4
! TERRAREF-----S4_2400 Field    	TERRAREF------S4
! TERRAREF-----S4_2408 Field    	TERRAREF------S4
! TERRAREF-----S4_2416 Field    	TERRAREF------S4
! TERRAREF-----S4_2424 Field    	TERRAREF------S4
! TERRAREF-----S4_2432 Field    	TERRAREF------S4
! TERRAREF-----S4_2440 Field    	TERRAREF------S4
! TERRAREF-----S4_2448 Field    	TERRAREF------S4
! TERRAREF-----S4_2456 Field    	TERRAREF------S4
! TERRAREF-----S4_2464 Field    	TERRAREF------S4
! TERRAREF-----S4_2472 Field    	TERRAREF------S4
! TERRAREF-----S4_2480 Field    	TERRAREF------S4
! TERRAREF-----S4_2488 Field    	TERRAREF------S4
! TERRAREF-----S4_2496 Field    	TERRAREF------S4
! TERRAREF-----S4_2504 Field    	TERRAREF------S4
! TERRAREF-----S4_2512 Field    	TERRAREF------S4
! TERRAREF-----S4_2520 Field    	TERRAREF------S4
! TERRAREF-----S4_2528 Field    	TERRAREF------S4
! TERRAREF-----S4_2536 Field    	TERRAREF------S4
! TERRAREF-----S4_2544 Field    	TERRAREF------S4
! TERRAREF-----S4_2552 Field    	TERRAREF------S4
! TERRAREF-----S4_2560 Field    	TERRAREF------S4
! TERRAREF-----S4_2568 Field    	TERRAREF------S4
! TERRAREF-----S4_2576 Field    	TERRAREF------S4
! TERRAREF-----S4_2584 Field    	TERRAREF------S4
! TERRAREF-----S4_2592 Field    	TERRAREF------S4
! TERRAREF-----S4_2600 Field    	TERRAREF------S4
! TERRAREF-----S4_2608 Field    	TERRAREF------S4
! TERRAREF-----S4_2616 Field    	TERRAREF------S4
! TERRAREF-----S4_2624 Field    	TERRAREF------S4
! TERRAREF-----S4_2632 Field    	TERRAREF------S4
! TERRAREF-----S4_2640 Field    	TERRAREF------S4
! TERRAREF-----S4_2648 Field    	TERRAREF------S4
! TERRAREF-----S4_2656 Field    	TERRAREF------S4
! TERRAREF-----S4_2664 Field    	TERRAREF------S4
! TERRAREF-----S4_2672 Field    	TERRAREF------S4
! TERRAREF-----S4_2680 Field    	TERRAREF------S4
! TERRAREF-----S4_2688 Field    	TERRAREF------S4
! TERRAREF-----S4_2696 Field    	TERRAREF------S4
! TERRAREF-----S4_2704 Field    	TERRAREF------S4
! TERRAREF-----S4_2712 Field    	TERRAREF------S4
! TERRAREF-----S4_2720 Field    	TERRAREF------S4
! TERRAREF-----S4_2728 Field    	TERRAREF------S4
! TERRAREF-----S4_2736 Field    	TERRAREF------S4
! TERRAREF-----S4_2744 Field    	TERRAREF------S4
! TERRAREF-----S4_2752 Field    	TERRAREF------S4
! TERRAREF-----S4_2760 Field    	TERRAREF------S4
! TERRAREF-----S4_2768 Field    	TERRAREF------S4
! TERRAREF-----S4_2776 Field    	TERRAREF------S4
! TERRAREF-----S4_2784 Field    	TERRAREF------S4
! TERRAREF-----S4_2792 Field    	TERRAREF------S4
! TERRAREF-----S4_2800 Field    	TERRAREF------S4
! TERRAREF-----S4_2808 Field    	TERRAREF------S4
! TERRAREF-----S4_2816 Field    	TERRAREF------S4
! TERRAREF-----S4_2824 Field    	TERRAREF------S4
! TERRAREF-----S4_2832 Field    	TERRAREF------S4
! TERRAREF-----S4_2840 Field    	TERRAREF------S4
! TERRAREF-----S4_2848 Field    	TERRAREF------S4
! TERRAREF-----S4_2856 Field    	TERRAREF------S4
! TERRAREF-----S4_2864 Field    	TERRAREF------S4
! TERRAREF-----S4_2872 Field    	TERRAREF------S4
! TERRAREF-----S4_2880 Field    	TERRAREF------S4
! TERRAREF-----S4_2888 Field    	TERRAREF------S4
! TERRAREF-----S4_2896 Field    	TERRAREF------S4
! TERRAREF-----S4_2904 Field    	TERRAREF------S4
! TERRAREF-----S4_2912 Field    	TERRAREF------S4
! TERRAREF-----S4_2920 Field    	TERRAREF------S4
! TERRAREF-----S4_2928 Field    	TERRAREF------S4
! TERRAREF-----S4_2936 Field    	TERRAREF------S4
! TERRAREF-----S4_2944 Field    	TERRAREF------S4
! TERRAREF-----S4_2952 Field    	TERRAREF------S4
! TERRAREF-----S4_2960 Field    	TERRAREF------S4
! TERRAREF-----S4_2968 Field    	TERRAREF------S4
! TERRAREF-----S4_2976 Field    	TERRAREF------S4
! TERRAREF-----S4_2984 Field    	TERRAREF------S4
! TERRAREF-----S4_2992 Field    	TERRAREF------S4
! TERRAREF-----S4_3000 Field    	TERRAREF------S4
! TERRAREF-----S4_3008 Field    	TERRAREF------S4
! TERRAREF-----S4_3016 Field    	TERRAREF------S4
! TERRAREF-----S4_3024 Field    	TERRAREF------S4
! TERRAREF-----S4_3032 Field    	TERRAREF------S4
! TERRAREF-----S4_3040 Field    	TERRAREF------S4
! TERRAREF-----S4_3048 Field    	TERRAREF------S4
! TERRAREF-----S4_3056 Field    	TERRAREF------S4
! TERRAREF-----S4_3064 Field    	TERRAREF------S4
! TERRAREF-----S4_3072 Field    	TERRAREF------S4
! TERRAREF-----S4_3080 Field    	TERRAREF------S4
! TERRAREF-----S4_3088 Field    	TERRAREF------S4
! TERRAREF-----S4_3096 Field    	TERRAREF------S4
! TERRAREF-----S4_3104 Field    	TERRAREF------S4
! TERRAREF-----S4_3112 Field    	TERRAREF------S4
! TERRAREF-----S4_3120 Field    	TERRAREF------S4
! TERRAREF-----S4_3128 Field    	TERRAREF------S4
! TERRAREF-----S4_3136 Field    	TERRAREF------S4
! TERRAREF-----S4_3144 Field    	TERRAREF------S4
! TERRAREF-----S4_3152 Field    	TERRAREF------S4
! TERRAREF-----S4_3160 Field    	TERRAREF------S4
! TERRAREF-----S4_3168 Field    	TERRAREF------S4
! TERRAREF-----S4_3176 Field    	TERRAREF------S4
! TERRAREF-----S4_3184 Field    	TERRAREF------S4
! TERRAREF-----S4_3192 Field    	TERRAREF------S4
! TERRAREF-----S4_3200 Field    	TERRAREF------S4
! TERRAREF-----S4_3208 Field    	TERRAREF------S4
! TERRAREF-----S4_3216 Field    	TERRAREF------S4
! TERRAREF-----S4_3224 Field    	TERRAREF------S4
! TERRAREF-----S4_3232 Field    	TERRAREF------S4
! TERRAREF-----S4_3240 Field    	TERRAREF------S4
! TERRAREF-----S4_3248 Field    	TERRAREF------S4
! TERRAREF-----S4_3256 Field    	TERRAREF------S4
! TERRAREF-----S4_3264 Field    	TERRAREF------S4
! TERRAREF-----S4_3272 Field    	TERRAREF------S4
! TERRAREF-----S4_3280 Field    	TERRAREF------S4
! TERRAREF-----S4_3288 Field    	TERRAREF------S4
! TERRAREF-----S4_3296 Field    	TERRAREF------S4
! TERRAREF-----S4_3304 Field    	TERRAREF------S4
! TERRAREF-----S4_3312 Field    	TERRAREF------S4
! TERRAREF-----S4_3320 Field    	TERRAREF------S4
! TERRAREF-----S4_3328 Field    	TERRAREF------S4
! TERRAREF-----S4_3336 Field    	TERRAREF------S4
! TERRAREF-----S4_3344 Field    	TERRAREF------S4
! TERRAREF-----S4_3352 Field    	TERRAREF------S4
! TERRAREF-----S4_3360 Field    	TERRAREF------S4
! TERRAREF-----S4_3368 Field    	TERRAREF------S4
! TERRAREF-----S4_3376 Field    	TERRAREF------S4
! TERRAREF-----S4_3384 Field    	TERRAREF------S4
! TERRAREF-----S4_3392 Field    	TERRAREF------S4
! TERRAREF-----S4_3400 Field    	TERRAREF------S4
! TERRAREF-----S4_3408 Field    	TERRAREF------S4
! TERRAREF-----S4_3416 Field    	TERRAREF------S4
! TERRAREF-----S4_3424 Field    	TERRAREF------S4
! TERRAREF-----S4_3432 Field    	TERRAREF------S4
! TERRAREF-----S4_3440 Field    	TERRAREF------S4
! TERRAREF-----S4_3448 Field    	TERRAREF------S4
! TERRAREF-----S4_3456 Field    	TERRAREF------S4
! TERRAREF-----S4_3464 Field    	TERRAREF------S4
! TERRAREF-----S4_3472 Field    	TERRAREF------S4
! TERRAREF-----S4_3480 Field    	TERRAREF------S4
! TERRAREF-----S4_3488 Field    	TERRAREF------S4
! TERRAREF-----S4_3496 Field    	TERRAREF------S4
! TERRAREF-----S4_3504 Field    	TERRAREF------S4
! TERRAREF-----S4_3512 Field    	TERRAREF------S4
! TERRAREF-----S4_3520 Field    	TERRAREF------S4
! TERRAREF-----S4_3528 Field    	TERRAREF------S4
! TERRAREF-----S4_3536 Field    	TERRAREF------S4
! TERRAREF-----S4_3544 Field    	TERRAREF------S4
! TERRAREF-----S4_3552 Field    	TERRAREF------S4
! TERRAREF-----S4_3560 Field    	TERRAREF------S4
! TERRAREF-----S4_3568 Field    	TERRAREF------S4
! TERRAREF-----S4_3576 Field    	TERRAREF------S4
! TERRAREF-----S4_3584 Field    	TERRAREF------S4
! TERRAREF-----S4_3592 Field    	TERRAREF------S4
! TERRAREF-----S4_3600 Field    	TERRAREF------S4
! TERRAREF-----S4_3608 Field    	TERRAREF------S4
! TERRAREF-----S4_3616 Field    	TERRAREF------S4
! TERRAREF-----S4_3624 Field    	TERRAREF------S4
! TERRAREF-----S4_3632 Field    	TERRAREF------S4
! TERRAREF-----S4_3640 Field    	TERRAREF------S4
! TERRAREF-----S4_3648 Field    	TERRAREF------S4
! TERRAREF-----S4_3656 Field    	TERRAREF------S4
! TERRAREF-----S4_3664 Field    	TERRAREF------S4
! TERRAREF-----S4_3672 Field    	TERRAREF------S4
! TERRAREF-----S4_3680 Field    	TERRAREF------S4
! TERRAREF-----S4_3688 Field    	TERRAREF------S4
! TERRAREF-----S4_3696 Field    	TERRAREF------S4
! TERRAREF-----S4_3704 Field    	TERRAREF------S4
! TERRAREF-----S4_3712 Field    	TERRAREF------S4
! TERRAREF-----S4_3720 Field    	TERRAREF------S4
! TERRAREF-----S4_3728 Field    	TERRAREF------S4
! TERRAREF-----S4_3736 Field    	TERRAREF------S4
! TERRAREF-----S4_3744 Field    	TERRAREF------S4
! TERRAREF-----S4_3752 Field    	TERRAREF------S4
! TERRAREF-----S4_3760 Field    	TERRAREF------S4
! TERRAREF-----S4_3768 Field    	TERRAREF------S4
! TERRAREF-----S4_3776 Field    	TERRAREF------S4
! TERRAREF-----S4_3784 Field    	TERRAREF------S4
! TERRAREF-----S4_3792 Field    	TERRAREF------S4
! TERRAREF-----S4_3800 Field    	TERRAREF------S4
! TERRAREF-----S4_3808 Field    	TERRAREF------S4
! TERRAREF-----S4_3816 Field    	TERRAREF------S4
! TERRAREF-----S4_3824 Field    	TERRAREF------S4
! TERRAREF-----S4_3832 Field    	TERRAREF------S4
! TERRAREF-----S4_3840 Field    	TERRAREF------S4
! TERRAREF-----S4_3848 Field    	TERRAREF------S4
! TERRAREF-----S4_3856 Field    	TERRAREF------S4
! TERRAREF-----S4_3864 Field    	TERRAREF------S4
! TERRAREF-----S4_3872 Field    	TERRAREF------S4
! TERRAREF-----S4_3880 Field    	TERRAREF------S4
! TERRAREF-----S4_3888 Field    	TERRAREF------S4
! TERRAREF-----S4_3896 Field    	TERRAREF------S4
! TERRAREF-----S4_3904 Field    	TERRAREF------S4
! TERRAREF-----S4_3912 Field    	TERRAREF------S4
! TERRAREF-----S4_3920 Field    	TERRAREF------S4
! TERRAREF-----S4_3928 Field    	TERRAREF------S4
! TERRAREF-----S4_3936 Field    	TERRAREF------S4
! TERRAREF-----S4_3944 Field    	TERRAREF------S4
! TERRAREF-----S4_3952 Field    	TERRAREF------S4
! TERRAREF-----S4_3960 Field    	TERRAREF------S4
! TERRAREF-----S4_3968 Field    	TERRAREF------S4
! TERRAREF-----S4_3976 Field    	TERRAREF------S4
! TERRAREF-----S4_3984 Field    	TERRAREF------S4
! TERRAREF-----S4_3992 Field    	TERRAREF------S4
! TERRAREF-----S4_4000 Field    	TERRAREF------S4

*GENERAL
@ PAREA  PRNO  PLEN  PLDR  PLSP  PLAY HAREA  HRNO  HLEN  HARM.........
    -99   -99   3.5   -99   -99 Biomass Association Panel (BAP), 336 accessions in 2 replicates (constrained by 2 height blocks) in ranges 4-51.  Ranges 3 and 52 planted primarily as uniform sections of SP1615 plus check plots for observation.  The Biomass Association Panel is described by Brenton, ZW et al. 2016. A genomic resource for the development, improvement, and exploitation of sorghum for bioenergy. Genetics 204: 21-33.   -99   -99   -99 -99            

*TREATMENTS                        -------------FACTOR LEVELS------------
@N R O C TNAME.................... CU FL SA IC MP MI MF MR MC MT ME MH SM
 1 1 1 0 TERRAREF-----S4_808        1  1  0  0  1  0  1  0  0  0  0  0  1
 2 1 1 0 TERRAREF-----S4_816        2  1  0  0  1  0  1  0  0  0  0  0  1
 3 1 1 0 TERRAREF-----S4_824        3  1  0  0  1  0  1  0  0  0  0  0  1
 4 1 1 0 TERRAREF-----S4_832        4  1  0  0  1  0  1  0  0  0  0  0  1
 5 1 1 0 TERRAREF-----S4_840        5  1  0  0  1  0  1  0  0  0  0  0  1
 6 1 1 0 TERRAREF-----S4_848        6  1  0  0  1  0  1  0  0  0  0  0  1
 7 1 1 0 TERRAREF-----S4_856        7  1  0  0  1  0  1  0  0  0  0  0  1
 8 1 1 0 TERRAREF-----S4_864        8  1  0  0  1  0  1  0  0  0  0  0  1
 9 1 1 0 TERRAREF-----S4_872        6  1  0  0  1  0  1  0  0  0  0  0  1
10 1 1 0 TERRAREF-----S4_880        9  1  0  0  1  0  1  0  0  0  0  0  1
11 1 1 0 TERRAREF-----S4_888       10  1  0  0  1  0  1  0  0  0  0  0  1
12 1 1 0 TERRAREF-----S4_896       11  1  0  0  1  0  1  0  0  0  0  0  1
13 1 1 0 TERRAREF-----S4_904        2  1  0  0  1  0  1  0  0  0  0  0  1
14 1 1 0 TERRAREF-----S4_912       12  1  0  0  1  0  1  0  0  0  0  0  1
15 1 1 0 TERRAREF-----S4_920       13  1  0  0  1  0  1  0  0  0  0  0  1
16 1 1 0 TERRAREF-----S4_928       14  1  0  0  1  0  1  0  0  0  0  0  1
17 1 1 0 TERRAREF-----S4_936       15  1  0  0  1  0  1  0  0  0  0  0  1
18 1 1 0 TERRAREF-----S4_944       16  1  0  0  1  0  1  0  0  0  0  0  1
19 1 1 0 TERRAREF-----S4_952       17  1  0  0  1  0  1  0  0  0  0  0  1
20 1 1 0 TERRAREF-----S4_960       18  1  0  0  1  0  1  0  0  0  0  0  1
21 1 1 0 TERRAREF-----S4_968       19  1  0  0  1  0  1  0  0  0  0  0  1
22 1 1 0 TERRAREF-----S4_976       20  1  0  0  1  0  1  0  0  0  0  0  1
23 1 1 0 TERRAREF-----S4_984       21  1  0  0  1  0  1  0  0  0  0  0  1
24 1 1 0 TERRAREF-----S4_992       22  1  0  0  1  0  1  0  0  0  0  0  1
25 1 1 0 TERRAREF-----S4_1000      23  1  0  0  1  0  1  0  0  0  0  0  1
26 1 1 0 TERRAREF-----S4_1008      24  1  0  0  1  0  1  0  0  0  0  0  1
27 1 1 0 TERRAREF-----S4_1016      25  1  0  0  1  0  1  0  0  0  0  0  1
28 1 1 0 TERRAREF-----S4_1024      26  1  0  0  1  0  1  0  0  0  0  0  1
29 1 1 0 TERRAREF-----S4_1032       1  1  0  0  1  0  1  0  0  0  0  0  1
30 1 1 0 TERRAREF-----S4_1040       9  1  0  0  1  0  1  0  0  0  0  0  1
31 1 1 0 TERRAREF-----S4_1048       9  1  0  0  1  0  1  0  0  0  0  0  1
32 1 1 0 TERRAREF-----S4_1056       9  1  0  0  1  0  1  0  0  0  0  0  1
33 1 1 0 TERRAREF-----S4_1064       9  1  0  0  1  0  1  0  0  0  0  0  1
34 1 1 0 TERRAREF-----S4_1072       9  1  0  0  1  0  1  0  0  0  0  0  1
35 1 1 0 TERRAREF-----S4_1080       9  1  0  0  1  0  1  0  0  0  0  0  1
36 1 1 0 TERRAREF-----S4_1088       9  1  0  0  1  0  1  0  0  0  0  0  1
37 1 1 0 TERRAREF-----S4_1096       9  1  0  0  1  0  1  0  0  0  0  0  1
38 1 1 0 TERRAREF-----S4_1104       9  1  0  0  1  0  1  0  0  0  0  0  1
39 1 1 0 TERRAREF-----S4_1112       9  1  0  0  1  0  1  0  0  0  0  0  1
40 1 1 0 TERRAREF-----S4_1120       9  1  0  0  1  0  1  0  0  0  0  0  1
41 1 1 0 TERRAREF-----S4_1128       9  1  0  0  1  0  1  0  0  0  0  0  1
42 1 1 0 TERRAREF-----S4_1136       9  1  0  0  1  0  1  0  0  0  0  0  1
43 1 1 0 TERRAREF-----S4_1144       9  1  0  0  1  0  1  0  0  0  0  0  1
44 1 1 0 TERRAREF-----S4_1152       1  1  0  0  1  0  1  0  0  0  0  0  1
45 1 1 0 TERRAREF-----S4_1160       1  1  0  0  1  0  1  0  0  0  0  0  1
46 1 1 0 TERRAREF-----S4_1168       1  1  0  0  1  0  1  0  0  0  0  0  1
47 1 1 0 TERRAREF-----S4_1176       1  1  0  0  1  0  1  0  0  0  0  0  1
48 1 1 0 TERRAREF-----S4_1184       1  1  0  0  1  0  1  0  0  0  0  0  1
49 1 1 0 TERRAREF-----S4_1192       1  1  0  0  1  0  1  0  0  0  0  0  1
50 1 1 0 TERRAREF-----S4_1200       1  1  0  0  1  0  1  0  0  0  0  0  1
51 1 1 0 TERRAREF-----S4_1208       1  1  0  0  1  0  1  0  0  0  0  0  1
52 1 1 0 TERRAREF-----S4_1216       1  1  0  0  1  0  1  0  0  0  0  0  1
53 1 1 0 TERRAREF-----S4_1224       1  1  0  0  1  0  1  0  0  0  0  0  1
54 1 1 0 TERRAREF-----S4_1232       1  1  0  0  1  0  1  0  0  0  0  0  1
55 1 1 0 TERRAREF-----S4_1240       1  1  0  0  1  0  1  0  0  0  0  0  1
56 1 1 0 TERRAREF-----S4_1248       1  1  0  0  1  0  1  0  0  0  0  0  1
57 1 1 0 TERRAREF-----S4_1256       1  1  0  0  1  0  1  0  0  0  0  0  1
58 1 1 0 TERRAREF-----S4_1264       1  1  0  0  1  0  1  0  0  0  0  0  1
59 1 1 0 TERRAREF-----S4_1272       1  1  0  0  1  0  1  0  0  0  0  0  1
60 1 1 0 TERRAREF-----S4_1280       1  1  0  0  1  0  1  0  0  0  0  0  1
61 1 1 0 TERRAREF-----S4_1288       1  1  0  0  1  0  1  0  0  0  0  0  1
62 1 1 0 TERRAREF-----S4_1296       1  1  0  0  1  0  1  0  0  0  0  0  1
63 1 1 0 TERRAREF-----S4_1304       1  1  0  0  1  0  1  0  0  0  0  0  1
64 1 1 0 TERRAREF-----S4_1312       1  1  0  0  1  0  1  0  0  0  0  0  1
65 1 1 0 TERRAREF-----S4_1320       1  1  0  0  1  0  1  0  0  0  0  0  1
66 1 1 0 TERRAREF-----S4_1328       1  1  0  0  1  0  1  0  0  0  0  0  1
67 1 1 0 TERRAREF-----S4_1336       1  1  0  0  1  0  1  0  0  0  0  0  1
68 1 1 0 TERRAREF-----S4_1344       1  1  0  0  1  0  1  0  0  0  0  0  1
69 1 1 0 TERRAREF-----S4_1352       1  1  0  0  1  0  1  0  0  0  0  0  1
70 1 1 0 TERRAREF-----S4_1360       1  1  0  0  1  0  1  0  0  0  0  0  1
71 1 1 0 TERRAREF-----S4_1368       1  1  0  0  1  0  1  0  0  0  0  0  1
72 1 1 0 TERRAREF-----S4_1376       1  1  0  0  1  0  1  0  0  0  0  0  1
73 1 1 0 TERRAREF-----S4_1384       1  1  0  0  1  0  1  0  0  0  0  0  1
74 1 1 0 TERRAREF-----S4_1392       1  1  0  0  1  0  1  0  0  0  0  0  1
75 1 1 0 TERRAREF-----S4_1400       1  1  0  0  1  0  1  0  0  0  0  0  1
76 1 1 0 TERRAREF-----S4_1408       1  1  0  0  1  0  1  0  0  0  0  0  1
77 1 1 0 TERRAREF-----S4_1416       1  1  0  0  1  0  1  0  0  0  0  0  1
78 1 1 0 TERRAREF-----S4_1424       1  1  0  0  1  0  1  0  0  0  0  0  1
79 1 1 0 TERRAREF-----S4_1432       1  1  0  0  1  0  1  0  0  0  0  0  1
80 1 1 0 TERRAREF-----S4_1440       1  1  0  0  1  0  1  0  0  0  0  0  1
81 1 1 0 TERRAREF-----S4_1448       1  1  0  0  1  0  1  0  0  0  0  0  1
82 1 1 0 TERRAREF-----S4_1456       1  1  0  0  1  0  1  0  0  0  0  0  1
83 1 1 0 TERRAREF-----S4_1464       1  1  0  0  1  0  1  0  0  0  0  0  1
84 1 1 0 TERRAREF-----S4_1472       1  1  0  0  1  0  1  0  0  0  0  0  1
85 1 1 0 TERRAREF-----S4_1480       2  1  0  0  1  0  1  0  0  0  0  0  1
86 1 1 0 TERRAREF-----S4_1488       2  1  0  0  1  0  1  0  0  0  0  0  1
87 1 1 0 TERRAREF-----S4_1496       2  1  0  0  1  0  1  0  0  0  0  0  1
88 1 1 0 TERRAREF-----S4_1504       2  1  0  0  1  0  1  0  0  0  0  0  1
89 1 1 0 TERRAREF-----S4_1512       2  1  0  0  1  0  1  0  0  0  0  0  1
90 1 1 0 TERRAREF-----S4_1520       2  1  0  0  1  0  1  0  0  0  0  0  1
91 1 1 0 TERRAREF-----S4_1528       2  1  0  0  1  0  1  0  0  0  0  0  1
92 1 1 0 TERRAREF-----S4_1536       2  1  0  0  1  0  1  0  0  0  0  0  1
93 1 1 0 TERRAREF-----S4_1544       2  1  0  0  1  0  1  0  0  0  0  0  1
94 1 1 0 TERRAREF-----S4_1552       2  1  0  0  1  0  1  0  0  0  0  0  1
95 1 1 0 TERRAREF-----S4_1560       2  1  0  0  1  0  1  0  0  0  0  0  1
96 1 1 0 TERRAREF-----S4_1568       2  1  0  0  1  0  1  0  0  0  0  0  1
97 1 1 0 TERRAREF-----S4_1576       2  1  0  0  1  0  1  0  0  0  0  0  1
98 1 1 0 TERRAREF-----S4_1584       2  1  0  0  1  0  1  0  0  0  0  0  1
99 1 1 0 TERRAREF-----S4_1592       2  1  0  0  1  0  1  0  0  0  0  0  1
1001 1 0 TERRAREF-----S4_1600       2  1  0  0  1  0  1  0  0  0  0  0  1
1011 1 0 TERRAREF-----S4_1608       2  1  0  0  1  0  1  0  0  0  0  0  1
1021 1 0 TERRAREF-----S4_1616       2  1  0  0  1  0  1  0  0  0  0  0  1
1031 1 0 TERRAREF-----S4_1624       2  1  0  0  1  0  1  0  0  0  0  0  1
1041 1 0 TERRAREF-----S4_1632       2  1  0  0  1  0  1  0  0  0  0  0  1
1051 1 0 TERRAREF-----S4_1640       2  1  0  0  1  0  1  0  0  0  0  0  1
1061 1 0 TERRAREF-----S4_1648       2  1  0  0  1  0  1  0  0  0  0  0  1
1071 1 0 TERRAREF-----S4_1656       2  1  0  0  1  0  1  0  0  0  0  0  1
1081 1 0 TERRAREF-----S4_1664       2  1  0  0  1  0  1  0  0  0  0  0  1
1091 1 0 TERRAREF-----S4_1672       2  1  0  0  1  0  1  0  0  0  0  0  1
1101 1 0 TERRAREF-----S4_1680       2  1  0  0  1  0  1  0  0  0  0  0  1
1111 1 0 TERRAREF-----S4_1688       2  1  0  0  1  0  1  0  0  0  0  0  1
1121 1 0 TERRAREF-----S4_1696       2  1  0  0  1  0  1  0  0  0  0  0  1
1131 1 0 TERRAREF-----S4_1704       2  1  0  0  1  0  1  0  0  0  0  0  1
1141 1 0 TERRAREF-----S4_1712       2  1  0  0  1  0  1  0  0  0  0  0  1
1151 1 0 TERRAREF-----S4_1720       2  1  0  0  1  0  1  0  0  0  0  0  1
1161 1 0 TERRAREF-----S4_1728       2  1  0  0  1  0  1  0  0  0  0  0  1
1171 1 0 TERRAREF-----S4_1736       2  1  0  0  1  0  1  0  0  0  0  0  1
1181 1 0 TERRAREF-----S4_1744       2  1  0  0  1  0  1  0  0  0  0  0  1